New Load.load_p2ulv63_1 conn=wye bus1=p2ulv63.1 kV=0.12 Vminpu=0.8 Vmaxpu=1.2 model=1 kW=4.826030344885995 kvar=1.062790197540727 Phases=1 !yearly=res_kw_12082_pu

New Load.load_p2ulv63_2 conn=wye bus1=p2ulv63.2 kV=0.12 Vminpu=0.8 Vmaxpu=1.2 model=1 kW=4.826030344885995 kvar=1.062790197540727 Phases=1 !yearly=res_kw_12082_pu

New Load.load_p2ulv64_1 conn=wye bus1=p2ulv64.1 kV=0.12 Vminpu=0.8 Vmaxpu=1.2 model=1 kW=5.920599830597058 kvar=1.0834055803900906 Phases=1 !yearly=res_kw_7705_pu

New Load.load_p2ulv64_2 conn=wye bus1=p2ulv64.2 kV=0.12 Vminpu=0.8 Vmaxpu=1.2 model=1 kW=5.920599830597058 kvar=1.0834055803900906 Phases=1 !yearly=res_kw_7705_pu

New Load.load_p2ulv65_1 conn=wye bus1=p2ulv65.1 kV=0.12 Vminpu=0.8 Vmaxpu=1.2 model=1 kW=4.934342058499102 kvar=1.3938542559068314 Phases=1 !yearly=res_kw_13392_pu

New Load.load_p2ulv65_2 conn=wye bus1=p2ulv65.2 kV=0.12 Vminpu=0.8 Vmaxpu=1.2 model=1 kW=4.934342058499102 kvar=1.3938542559068314 Phases=1 !yearly=res_kw_13392_pu

New Load.load_p2ulv66_1 conn=wye bus1=p2ulv66.1 kV=0.12 Vminpu=0.8 Vmaxpu=1.2 model=1 kW=6.899975949142275 kvar=1.6519372839728867 Phases=1 !yearly=res_kw_32758_pu

New Load.load_p2ulv66_2 conn=wye bus1=p2ulv66.2 kV=0.12 Vminpu=0.8 Vmaxpu=1.2 model=1 kW=6.899975949142275 kvar=1.6519372839728867 Phases=1 !yearly=res_kw_32758_pu

New Load.load_p2ulv67_1 conn=wye bus1=p2ulv67.1 kV=0.12 Vminpu=0.8 Vmaxpu=1.2 model=1 kW=7.923390975995866 kvar=1.3503965783481486 Phases=1 !yearly=res_kw_43019_pu

New Load.load_p2ulv67_2 conn=wye bus1=p2ulv67.2 kV=0.12 Vminpu=0.8 Vmaxpu=1.2 model=1 kW=7.923390975995866 kvar=1.3503965783481486 Phases=1 !yearly=res_kw_43019_pu

New Load.load_p2ulv68_1 conn=wye bus1=p2ulv68.1 kV=0.12 Vminpu=0.8 Vmaxpu=1.2 model=1 kW=7.107990558259305 kvar=2.2585246090252302 Phases=1 !yearly=res_kw_18909_pu

New Load.load_p2ulv68_2 conn=wye bus1=p2ulv68.2 kV=0.12 Vminpu=0.8 Vmaxpu=1.2 model=1 kW=7.107990558259305 kvar=2.2585246090252302 Phases=1 !yearly=res_kw_18909_pu

New Load.load_p2ulv69_1 conn=wye bus1=p2ulv69.1 kV=0.12 Vminpu=0.8 Vmaxpu=1.2 model=1 kW=12.623708791939027 kvar=0.6723185174638054 Phases=1 !yearly=res_kw_12476_pu

New Load.load_p2ulv69_2 conn=wye bus1=p2ulv69.2 kV=0.12 Vminpu=0.8 Vmaxpu=1.2 model=1 kW=12.623708791939027 kvar=0.6723185174638054 Phases=1 !yearly=res_kw_12476_pu

New Load.load_p2ulv335_1 conn=wye bus1=p2ulv335.1 kV=0.12 Vminpu=0.8 Vmaxpu=1.2 model=1 kW=6.77334055851312 kvar=1.5126632555525492 Phases=1 !yearly=res_kw_1999_pu

New Load.load_p2ulv335_2 conn=wye bus1=p2ulv335.2 kV=0.12 Vminpu=0.8 Vmaxpu=1.2 model=1 kW=6.77334055851312 kvar=1.5126632555525492 Phases=1 !yearly=res_kw_1999_pu

New Load.load_p2ulv338_1 conn=wye bus1=p2ulv338.1 kV=0.12 Vminpu=0.8 Vmaxpu=1.2 model=1 kW=4.230062891228552 kvar=1.1088318088439775 Phases=1 !yearly=res_kw_953_pu

New Load.load_p2ulv338_2 conn=wye bus1=p2ulv338.2 kV=0.12 Vminpu=0.8 Vmaxpu=1.2 model=1 kW=4.230062891228552 kvar=1.1088318088439775 Phases=1 !yearly=res_kw_953_pu

New Load.load_p2ulv339_1 conn=wye bus1=p2ulv339.1 kV=0.12 Vminpu=0.8 Vmaxpu=1.2 model=1 kW=7.323712673907353 kvar=1.8117876624732137 Phases=1 !yearly=res_kw_4949_pu

New Load.load_p2ulv339_2 conn=wye bus1=p2ulv339.2 kV=0.12 Vminpu=0.8 Vmaxpu=1.2 model=1 kW=7.323712673907353 kvar=1.8117876624732137 Phases=1 !yearly=res_kw_4949_pu

New Load.load_p2ulv555_1 conn=wye bus1=p2ulv555.1 kV=0.12 Vminpu=0.8 Vmaxpu=1.2 model=1 kW=2.352069755875099 kvar=0.5914621096467607 Phases=1 !yearly=com_kw_42387_pu

New Load.load_p2ulv555_2 conn=wye bus1=p2ulv555.2 kV=0.12 Vminpu=0.8 Vmaxpu=1.2 model=1 kW=2.352069755875099 kvar=0.5914621096467607 Phases=1 !yearly=com_kw_42387_pu

New Load.load_p2ulv556_1 conn=wye bus1=p2ulv556.1 kV=0.12 Vminpu=0.8 Vmaxpu=1.2 model=1 kW=4.826030344885995 kvar=1.062790197540727 Phases=1 !yearly=res_kw_12082_pu

New Load.load_p2ulv556_2 conn=wye bus1=p2ulv556.2 kV=0.12 Vminpu=0.8 Vmaxpu=1.2 model=1 kW=4.826030344885995 kvar=1.062790197540727 Phases=1 !yearly=res_kw_12082_pu

New Load.load_p2ulv557_1 conn=wye bus1=p2ulv557.1 kV=0.12 Vminpu=0.8 Vmaxpu=1.2 model=1 kW=5.299973293948676 kvar=1.3758784116040506 Phases=1 !yearly=res_kw_24031_pu

New Load.load_p2ulv557_2 conn=wye bus1=p2ulv557.2 kV=0.12 Vminpu=0.8 Vmaxpu=1.2 model=1 kW=5.299973293948676 kvar=1.3758784116040506 Phases=1 !yearly=res_kw_24031_pu

New Load.load_p2ulv558_1 conn=wye bus1=p2ulv558.1 kV=0.12 Vminpu=0.8 Vmaxpu=1.2 model=1 kW=7.544055494077896 kvar=1.6943743873482953 Phases=1 !yearly=res_kw_29860_pu

New Load.load_p2ulv558_2 conn=wye bus1=p2ulv558.2 kV=0.12 Vminpu=0.8 Vmaxpu=1.2 model=1 kW=7.544055494077896 kvar=1.6943743873482953 Phases=1 !yearly=res_kw_29860_pu

New Load.load_p2ulv559_1 conn=wye bus1=p2ulv559.1 kV=0.12 Vminpu=0.8 Vmaxpu=1.2 model=1 kW=7.107990558259305 kvar=2.2585246090252302 Phases=1 !yearly=res_kw_18909_pu

New Load.load_p2ulv559_2 conn=wye bus1=p2ulv559.2 kV=0.12 Vminpu=0.8 Vmaxpu=1.2 model=1 kW=7.107990558259305 kvar=2.2585246090252302 Phases=1 !yearly=res_kw_18909_pu

New Load.load_p2ulv560_1 conn=wye bus1=p2ulv560.1 kV=0.12 Vminpu=0.8 Vmaxpu=1.2 model=1 kW=7.104866998269471 kvar=1.6943432300978973 Phases=1 !yearly=res_kw_34924_pu

New Load.load_p2ulv560_2 conn=wye bus1=p2ulv560.2 kV=0.12 Vminpu=0.8 Vmaxpu=1.2 model=1 kW=7.104866998269471 kvar=1.6943432300978973 Phases=1 !yearly=res_kw_34924_pu

New Load.load_p2ulv561_1 conn=wye bus1=p2ulv561.1 kV=0.12 Vminpu=0.8 Vmaxpu=1.2 model=1 kW=6.906518788578483 kvar=0.29232618805527877 Phases=1 !yearly=res_kw_11700_pu

New Load.load_p2ulv561_2 conn=wye bus1=p2ulv561.2 kV=0.12 Vminpu=0.8 Vmaxpu=1.2 model=1 kW=6.906518788578483 kvar=0.29232618805527877 Phases=1 !yearly=res_kw_11700_pu

New Load.load_p2ulv562_1 conn=wye bus1=p2ulv562.1 kV=0.12 Vminpu=0.8 Vmaxpu=1.2 model=1 kW=5.250624810570212 kvar=0.7234139455243049 Phases=1 !yearly=res_kw_23013_pu

New Load.load_p2ulv562_2 conn=wye bus1=p2ulv562.2 kV=0.12 Vminpu=0.8 Vmaxpu=1.2 model=1 kW=5.250624810570212 kvar=0.7234139455243049 Phases=1 !yearly=res_kw_23013_pu

New Load.load_p2ulv783_1 conn=wye bus1=p2ulv783.1 kV=0.12 Vminpu=0.8 Vmaxpu=1.2 model=1 kW=2.7373630628355943 kvar=0.7212742814797044 Phases=1 !yearly=com_kw_42578_pu

New Load.load_p2ulv783_2 conn=wye bus1=p2ulv783.2 kV=0.12 Vminpu=0.8 Vmaxpu=1.2 model=1 kW=2.7373630628355943 kvar=0.7212742814797044 Phases=1 !yearly=com_kw_42578_pu

New Load.load_p2ulv786_1 conn=wye bus1=p2ulv786.1 kV=0.12 Vminpu=0.8 Vmaxpu=1.2 model=1 kW=4.174868966851557 kvar=1.2817312289023306 Phases=1 !yearly=res_kw_40187_pu

New Load.load_p2ulv786_2 conn=wye bus1=p2ulv786.2 kV=0.12 Vminpu=0.8 Vmaxpu=1.2 model=1 kW=4.174868966851557 kvar=1.2817312289023306 Phases=1 !yearly=res_kw_40187_pu

New Load.load_p2ulv1042_1 conn=wye bus1=p2ulv1042.1 kV=0.12 Vminpu=0.8 Vmaxpu=1.2 model=1 kW=6.962250967305543 kvar=0.2431393453487215 Phases=1 !yearly=res_kw_11286_pu

New Load.load_p2ulv1042_2 conn=wye bus1=p2ulv1042.2 kV=0.12 Vminpu=0.8 Vmaxpu=1.2 model=1 kW=6.962250967305543 kvar=0.2431393453487215 Phases=1 !yearly=res_kw_11286_pu

New Load.load_p2ulv1043_1 conn=wye bus1=p2ulv1043.1 kV=0.12 Vminpu=0.8 Vmaxpu=1.2 model=1 kW=5.250624810570212 kvar=0.7234139455243049 Phases=1 !yearly=res_kw_23013_pu

New Load.load_p2ulv1043_2 conn=wye bus1=p2ulv1043.2 kV=0.12 Vminpu=0.8 Vmaxpu=1.2 model=1 kW=5.250624810570212 kvar=0.7234139455243049 Phases=1 !yearly=res_kw_23013_pu

New Load.load_p2ulv1044_1 conn=wye bus1=p2ulv1044.1 kV=0.12 Vminpu=0.8 Vmaxpu=1.2 model=1 kW=7.544055494077896 kvar=1.6943743873482953 Phases=1 !yearly=res_kw_29860_pu

New Load.load_p2ulv1044_2 conn=wye bus1=p2ulv1044.2 kV=0.12 Vminpu=0.8 Vmaxpu=1.2 model=1 kW=7.544055494077896 kvar=1.6943743873482953 Phases=1 !yearly=res_kw_29860_pu

New Load.load_p2ulv1045_1 conn=wye bus1=p2ulv1045.1 kV=0.12 Vminpu=0.8 Vmaxpu=1.2 model=1 kW=7.929777456000175 kvar=2.113582579556455 Phases=1 !yearly=res_kw_45191_pu

New Load.load_p2ulv1045_2 conn=wye bus1=p2ulv1045.2 kV=0.12 Vminpu=0.8 Vmaxpu=1.2 model=1 kW=7.929777456000175 kvar=2.113582579556455 Phases=1 !yearly=res_kw_45191_pu

New Load.load_p2ulv1278_1 conn=wye bus1=p2ulv1278.1 kV=0.12 Vminpu=0.8 Vmaxpu=1.2 model=1 kW=5.046490609072516 kvar=0.9890645378486775 Phases=1 !yearly=res_kw_6342_pu

New Load.load_p2ulv1278_2 conn=wye bus1=p2ulv1278.2 kV=0.12 Vminpu=0.8 Vmaxpu=1.2 model=1 kW=5.046490609072516 kvar=0.9890645378486775 Phases=1 !yearly=res_kw_6342_pu

New Load.load_p2ulv1279_1 conn=wye bus1=p2ulv1279.1 kV=0.12 Vminpu=0.8 Vmaxpu=1.2 model=1 kW=4.38036261651304 kvar=1.2951821537149577 Phases=1 !yearly=res_kw_6623_pu

New Load.load_p2ulv1279_2 conn=wye bus1=p2ulv1279.2 kV=0.12 Vminpu=0.8 Vmaxpu=1.2 model=1 kW=4.38036261651304 kvar=1.2951821537149577 Phases=1 !yearly=res_kw_6623_pu

New Load.load_p2ulv1280_1 conn=wye bus1=p2ulv1280.1 kV=0.12 Vminpu=0.8 Vmaxpu=1.2 model=1 kW=6.603936078614125 kvar=1.7875068813877917 Phases=1 !yearly=res_kw_12427_pu

New Load.load_p2ulv1280_2 conn=wye bus1=p2ulv1280.2 kV=0.12 Vminpu=0.8 Vmaxpu=1.2 model=1 kW=6.603936078614125 kvar=1.7875068813877917 Phases=1 !yearly=res_kw_12427_pu

New Load.load_p2ulv1281_1 conn=wye bus1=p2ulv1281.1 kV=0.12 Vminpu=0.8 Vmaxpu=1.2 model=1 kW=9.603345641252698 kvar=0.4902535664345812 Phases=1 !yearly=res_kw_43700_pu

New Load.load_p2ulv1281_2 conn=wye bus1=p2ulv1281.2 kV=0.12 Vminpu=0.8 Vmaxpu=1.2 model=1 kW=9.603345641252698 kvar=0.4902535664345812 Phases=1 !yearly=res_kw_43700_pu

New Load.load_p2ulv1282_1 conn=wye bus1=p2ulv1282.1 kV=0.12 Vminpu=0.8 Vmaxpu=1.2 model=1 kW=4.217895144025146 kvar=0.9700489695584431 Phases=1 !yearly=res_kw_39060_pu

New Load.load_p2ulv1282_2 conn=wye bus1=p2ulv1282.2 kV=0.12 Vminpu=0.8 Vmaxpu=1.2 model=1 kW=4.217895144025146 kvar=0.9700489695584431 Phases=1 !yearly=res_kw_39060_pu

New Load.load_p2ulv1283_1 conn=wye bus1=p2ulv1283.1 kV=0.12 Vminpu=0.8 Vmaxpu=1.2 model=1 kW=5.122239074905752 kvar=0.5296306571629831 Phases=1 !yearly=res_kw_6215_pu

New Load.load_p2ulv1283_2 conn=wye bus1=p2ulv1283.2 kV=0.12 Vminpu=0.8 Vmaxpu=1.2 model=1 kW=5.122239074905752 kvar=0.5296306571629831 Phases=1 !yearly=res_kw_6215_pu

New Load.load_p2ulv1541_1 conn=wye bus1=p2ulv1541.1 kV=0.12 Vminpu=0.8 Vmaxpu=1.2 model=1 kW=3.341318207737171 kvar=0.6081326486890618 Phases=1 !yearly=res_kw_5319_pu

New Load.load_p2ulv1541_2 conn=wye bus1=p2ulv1541.2 kV=0.12 Vminpu=0.8 Vmaxpu=1.2 model=1 kW=3.341318207737171 kvar=0.6081326486890618 Phases=1 !yearly=res_kw_5319_pu

New Load.load_p2ulv1542_1 conn=wye bus1=p2ulv1542.1 kV=0.12 Vminpu=0.8 Vmaxpu=1.2 model=1 kW=5.3517061054139905 kvar=1.1793257813284868 Phases=1 !yearly=res_kw_40960_pu

New Load.load_p2ulv1542_2 conn=wye bus1=p2ulv1542.2 kV=0.12 Vminpu=0.8 Vmaxpu=1.2 model=1 kW=5.3517061054139905 kvar=1.1793257813284868 Phases=1 !yearly=res_kw_40960_pu

New Load.load_p2ulv1543_1 conn=wye bus1=p2ulv1543.1 kV=0.12 Vminpu=0.8 Vmaxpu=1.2 model=1 kW=3.5068946117666138 kvar=1.0426001434316485 Phases=1 !yearly=res_kw_16741_pu

New Load.load_p2ulv1543_2 conn=wye bus1=p2ulv1543.2 kV=0.12 Vminpu=0.8 Vmaxpu=1.2 model=1 kW=3.5068946117666138 kvar=1.0426001434316485 Phases=1 !yearly=res_kw_16741_pu

New Load.load_p2ulv1544_1 conn=wye bus1=p2ulv1544.1 kV=0.12 Vminpu=0.8 Vmaxpu=1.2 model=1 kW=7.544055494077896 kvar=1.6943743873482953 Phases=1 !yearly=res_kw_29860_pu

New Load.load_p2ulv1544_2 conn=wye bus1=p2ulv1544.2 kV=0.12 Vminpu=0.8 Vmaxpu=1.2 model=1 kW=7.544055494077896 kvar=1.6943743873482953 Phases=1 !yearly=res_kw_29860_pu

New Load.load_p2ulv1545_1 conn=wye bus1=p2ulv1545.1 kV=0.12 Vminpu=0.8 Vmaxpu=1.2 model=1 kW=9.47293688562851 kvar=1.291749975980181 Phases=1 !yearly=res_kw_43287_pu

New Load.load_p2ulv1545_2 conn=wye bus1=p2ulv1545.2 kV=0.12 Vminpu=0.8 Vmaxpu=1.2 model=1 kW=9.47293688562851 kvar=1.291749975980181 Phases=1 !yearly=res_kw_43287_pu

New Load.load_p2ulv1546_1 conn=wye bus1=p2ulv1546.1 kV=0.12 Vminpu=0.8 Vmaxpu=1.2 model=1 kW=5.409225793248742 kvar=1.025890812959891 Phases=1 !yearly=res_kw_28431_pu

New Load.load_p2ulv1546_2 conn=wye bus1=p2ulv1546.2 kV=0.12 Vminpu=0.8 Vmaxpu=1.2 model=1 kW=5.409225793248742 kvar=1.025890812959891 Phases=1 !yearly=res_kw_28431_pu

New Load.load_p2ulv1547_1 conn=wye bus1=p2ulv1547.1 kV=0.12 Vminpu=0.8 Vmaxpu=1.2 model=1 kW=5.847684554327409 kvar=1.530905218487803 Phases=1 !yearly=com_kw_42829_pu

New Load.load_p2ulv1547_2 conn=wye bus1=p2ulv1547.2 kV=0.12 Vminpu=0.8 Vmaxpu=1.2 model=1 kW=5.847684554327409 kvar=1.530905218487803 Phases=1 !yearly=com_kw_42829_pu

New Load.load_p2ulv1754_1 conn=wye bus1=p2ulv1754.1 kV=0.12 Vminpu=0.8 Vmaxpu=1.2 model=1 kW=5.532659482044776 kvar=1.304523068538409 Phases=1 !yearly=res_kw_40688_pu

New Load.load_p2ulv1754_2 conn=wye bus1=p2ulv1754.2 kV=0.12 Vminpu=0.8 Vmaxpu=1.2 model=1 kW=5.532659482044776 kvar=1.304523068538409 Phases=1 !yearly=res_kw_40688_pu

New Load.load_p2ulv1765_1 conn=wye bus1=p2ulv1765.1 kV=0.12 Vminpu=0.8 Vmaxpu=1.2 model=1 kW=5.871406178418376 kvar=1.0370839699538301 Phases=1 !yearly=res_kw_39832_pu

New Load.load_p2ulv1765_2 conn=wye bus1=p2ulv1765.2 kV=0.12 Vminpu=0.8 Vmaxpu=1.2 model=1 kW=5.871406178418376 kvar=1.0370839699538301 Phases=1 !yearly=res_kw_39832_pu

New Load.load_p2ulv1768_1 conn=wye bus1=p2ulv1768.1 kV=0.12 Vminpu=0.8 Vmaxpu=1.2 model=1 kW=1.7474004854857799 kvar=0.6205558850381838 Phases=1 !yearly=res_kw_42774_pu

New Load.load_p2ulv1768_2 conn=wye bus1=p2ulv1768.2 kV=0.12 Vminpu=0.8 Vmaxpu=1.2 model=1 kW=1.7474004854857799 kvar=0.6205558850381838 Phases=1 !yearly=res_kw_42774_pu

New Load.load_p2ulv2007_1 conn=wye bus1=p2ulv2007.1 kV=0.12 Vminpu=0.8 Vmaxpu=1.2 model=1 kW=2.3924988765356696 kvar=0.998792806781744 Phases=1 !yearly=res_kw_26960_pu

New Load.load_p2ulv2007_2 conn=wye bus1=p2ulv2007.2 kV=0.12 Vminpu=0.8 Vmaxpu=1.2 model=1 kW=2.3924988765356696 kvar=0.998792806781744 Phases=1 !yearly=res_kw_26960_pu

New Load.load_p2ulv2008_1 conn=wye bus1=p2ulv2008.1 kV=0.12 Vminpu=0.8 Vmaxpu=1.2 model=1 kW=9.708167789555088 kvar=2.287831233678974 Phases=1 !yearly=res_kw_11306_pu

New Load.load_p2ulv2008_2 conn=wye bus1=p2ulv2008.2 kV=0.12 Vminpu=0.8 Vmaxpu=1.2 model=1 kW=9.708167789555088 kvar=2.287831233678974 Phases=1 !yearly=res_kw_11306_pu

New Load.load_p2ulv2241_1 conn=wye bus1=p2ulv2241.1 kV=0.12 Vminpu=0.8 Vmaxpu=1.2 model=1 kW=5.2261622902915414 kvar=1.4263796537032316 Phases=1 !yearly=res_kw_6205_pu

New Load.load_p2ulv2241_2 conn=wye bus1=p2ulv2241.2 kV=0.12 Vminpu=0.8 Vmaxpu=1.2 model=1 kW=5.2261622902915414 kvar=1.4263796537032316 Phases=1 !yearly=res_kw_6205_pu

New Load.load_p2ulv2242_1 conn=wye bus1=p2ulv2242.1 kV=0.12 Vminpu=0.8 Vmaxpu=1.2 model=1 kW=2.9958101496453975 kvar=1.050581444354185 Phases=1 !yearly=res_kw_942_pu

New Load.load_p2ulv2242_2 conn=wye bus1=p2ulv2242.2 kV=0.12 Vminpu=0.8 Vmaxpu=1.2 model=1 kW=2.9958101496453975 kvar=1.050581444354185 Phases=1 !yearly=res_kw_942_pu

New Load.load_p2ulv2243_1 conn=wye bus1=p2ulv2243.1 kV=0.12 Vminpu=0.8 Vmaxpu=1.2 model=1 kW=5.143641424594856 kvar=1.293499854530759 Phases=1 !yearly=res_kw_17630_pu

New Load.load_p2ulv2243_2 conn=wye bus1=p2ulv2243.2 kV=0.12 Vminpu=0.8 Vmaxpu=1.2 model=1 kW=5.143641424594856 kvar=1.293499854530759 Phases=1 !yearly=res_kw_17630_pu

New Load.load_p2ulv2244_1 conn=wye bus1=p2ulv2244.1 kV=0.12 Vminpu=0.8 Vmaxpu=1.2 model=1 kW=6.410436161587603 kvar=1.41009703948587 Phases=1 !yearly=res_kw_20796_pu

New Load.load_p2ulv2244_2 conn=wye bus1=p2ulv2244.2 kV=0.12 Vminpu=0.8 Vmaxpu=1.2 model=1 kW=6.410436161587603 kvar=1.41009703948587 Phases=1 !yearly=res_kw_20796_pu

New Load.load_p2ulv2245_1 conn=wye bus1=p2ulv2245.1 kV=0.12 Vminpu=0.8 Vmaxpu=1.2 model=1 kW=2.144987656544245 kvar=0.11033964773398292 Phases=1 !yearly=com_kw_42531_pu

New Load.load_p2ulv2245_2 conn=wye bus1=p2ulv2245.2 kV=0.12 Vminpu=0.8 Vmaxpu=1.2 model=1 kW=2.144987656544245 kvar=0.11033964773398292 Phases=1 !yearly=com_kw_42531_pu

New Load.load_p2ulv2246_1 conn=wye bus1=p2ulv2246.1 kV=0.12 Vminpu=0.8 Vmaxpu=1.2 model=1 kW=5.409225793248742 kvar=1.025890812959891 Phases=1 !yearly=res_kw_28431_pu

New Load.load_p2ulv2246_2 conn=wye bus1=p2ulv2246.2 kV=0.12 Vminpu=0.8 Vmaxpu=1.2 model=1 kW=5.409225793248742 kvar=1.025890812959891 Phases=1 !yearly=res_kw_28431_pu

New Load.load_p2ulv2247_1 conn=wye bus1=p2ulv2247.1 kV=0.12 Vminpu=0.8 Vmaxpu=1.2 model=1 kW=7.931006734253754 kvar=1.6539655399261446 Phases=1 !yearly=res_kw_24274_pu

New Load.load_p2ulv2247_2 conn=wye bus1=p2ulv2247.2 kV=0.12 Vminpu=0.8 Vmaxpu=1.2 model=1 kW=7.931006734253754 kvar=1.6539655399261446 Phases=1 !yearly=res_kw_24274_pu

New Load.load_p2ulv2496_1 conn=wye bus1=p2ulv2496.1 kV=0.12 Vminpu=0.8 Vmaxpu=1.2 model=1 kW=7.384415358980683 kvar=1.3323868218927537 Phases=1 !yearly=res_kw_37244_pu

New Load.load_p2ulv2496_2 conn=wye bus1=p2ulv2496.2 kV=0.12 Vminpu=0.8 Vmaxpu=1.2 model=1 kW=7.384415358980683 kvar=1.3323868218927537 Phases=1 !yearly=res_kw_37244_pu

New Load.load_p2ulv2497_1 conn=wye bus1=p2ulv2497.1 kV=0.12 Vminpu=0.8 Vmaxpu=1.2 model=1 kW=4.3773335638748705 kvar=0.18552891728135248 Phases=1 !yearly=com_kw_42750_pu

New Load.load_p2ulv2497_2 conn=wye bus1=p2ulv2497.2 kV=0.12 Vminpu=0.8 Vmaxpu=1.2 model=1 kW=4.3773335638748705 kvar=0.18552891728135248 Phases=1 !yearly=com_kw_42750_pu

New Load.load_p2ulv2498_1 conn=wye bus1=p2ulv2498.1 kV=0.12 Vminpu=0.8 Vmaxpu=1.2 model=1 kW=5.991795139126582 kvar=1.364744007743098 Phases=1 !yearly=res_kw_13499_pu

New Load.load_p2ulv2498_2 conn=wye bus1=p2ulv2498.2 kV=0.12 Vminpu=0.8 Vmaxpu=1.2 model=1 kW=5.991795139126582 kvar=1.364744007743098 Phases=1 !yearly=res_kw_13499_pu

New Load.load_p2ulv2499_1 conn=wye bus1=p2ulv2499.1 kV=0.12 Vminpu=0.8 Vmaxpu=1.2 model=1 kW=12.19815179081041 kvar=2.7475347146964104 Phases=1 !yearly=res_kw_6882_pu

New Load.load_p2ulv2499_2 conn=wye bus1=p2ulv2499.2 kV=0.12 Vminpu=0.8 Vmaxpu=1.2 model=1 kW=12.19815179081041 kvar=2.7475347146964104 Phases=1 !yearly=res_kw_6882_pu

New Load.load_p2ulv2500_1 conn=wye bus1=p2ulv2500.1 kV=0.12 Vminpu=0.8 Vmaxpu=1.2 model=1 kW=12.19815179081041 kvar=2.7475347146964104 Phases=1 !yearly=res_kw_6882_pu

New Load.load_p2ulv2500_2 conn=wye bus1=p2ulv2500.2 kV=0.12 Vminpu=0.8 Vmaxpu=1.2 model=1 kW=12.19815179081041 kvar=2.7475347146964104 Phases=1 !yearly=res_kw_6882_pu

New Load.load_p2ulv2501_1 conn=wye bus1=p2ulv2501.1 kV=0.12 Vminpu=0.8 Vmaxpu=1.2 model=1 kW=4.645588297268392 kvar=1.5096437578604867 Phases=1 !yearly=res_kw_33323_pu

New Load.load_p2ulv2501_2 conn=wye bus1=p2ulv2501.2 kV=0.12 Vminpu=0.8 Vmaxpu=1.2 model=1 kW=4.645588297268392 kvar=1.5096437578604867 Phases=1 !yearly=res_kw_33323_pu

New Load.load_p2ulv2502 conn=wye bus1=p2ulv2502.1.2.3 kV=0.48 Vminpu=0.8 Vmaxpu=1.2 model=1 kW=42.80324322416048 kvar=9.172633824199472 Phases=3 !yearly=com_kw_42476_pu

New Load.load_p2ulv2749_1 conn=wye bus1=p2ulv2749.1 kV=0.12 Vminpu=0.8 Vmaxpu=1.2 model=1 kW=6.410436161587603 kvar=1.41009703948587 Phases=1 !yearly=res_kw_20796_pu

New Load.load_p2ulv2749_2 conn=wye bus1=p2ulv2749.2 kV=0.12 Vminpu=0.8 Vmaxpu=1.2 model=1 kW=6.410436161587603 kvar=1.41009703948587 Phases=1 !yearly=res_kw_20796_pu

New Load.load_p2ulv2759_1 conn=wye bus1=p2ulv2759.1 kV=0.12 Vminpu=0.8 Vmaxpu=1.2 model=1 kW=6.603936078614125 kvar=1.7875068813877917 Phases=1 !yearly=res_kw_12427_pu

New Load.load_p2ulv2759_2 conn=wye bus1=p2ulv2759.2 kV=0.12 Vminpu=0.8 Vmaxpu=1.2 model=1 kW=6.603936078614125 kvar=1.7875068813877917 Phases=1 !yearly=res_kw_12427_pu

New Load.load_p2ulv2760_1 conn=wye bus1=p2ulv1282.1 kV=0.12 Vminpu=0.8 Vmaxpu=1.2 model=1 kW=7.544055494077896 kvar=1.6943743873482953 Phases=1 !yearly=res_kw_29860_pu

New Load.load_p2ulv2760_2 conn=wye bus1=p2ulv1282.2 kV=0.12 Vminpu=0.8 Vmaxpu=1.2 model=1 kW=7.544055494077896 kvar=1.6943743873482953 Phases=1 !yearly=res_kw_29860_pu

New Load.load_p2ulv2761_1 conn=wye bus1=p2ulv2761.1 kV=0.12 Vminpu=0.8 Vmaxpu=1.2 model=1 kW=9.769909798312609 kvar=0.6729766716492672 Phases=1 !yearly=res_kw_45190_pu

New Load.load_p2ulv2761_2 conn=wye bus1=p2ulv2761.2 kV=0.12 Vminpu=0.8 Vmaxpu=1.2 model=1 kW=9.769909798312609 kvar=0.6729766716492672 Phases=1 !yearly=res_kw_45190_pu

New Load.load_p2ulv2762_1 conn=wye bus1=p2ulv2762.1 kV=0.12 Vminpu=0.8 Vmaxpu=1.2 model=1 kW=5.036152611908438 kvar=1.3365620606032 Phases=1 !yearly=res_kw_40746_pu

New Load.load_p2ulv2762_2 conn=wye bus1=p2ulv2762.2 kV=0.12 Vminpu=0.8 Vmaxpu=1.2 model=1 kW=5.036152611908438 kvar=1.3365620606032 Phases=1 !yearly=res_kw_40746_pu

New Load.load_p2ulv3004_1 conn=wye bus1=p2ulv3004.1 kV=0.12 Vminpu=0.8 Vmaxpu=1.2 model=1 kW=7.896538341641115 kvar=2.073827014840843 Phases=1 !yearly=res_kw_44046_pu

New Load.load_p2ulv3004_2 conn=wye bus1=p2ulv3004.2 kV=0.12 Vminpu=0.8 Vmaxpu=1.2 model=1 kW=7.896538341641115 kvar=2.073827014840843 Phases=1 !yearly=res_kw_44046_pu

New Load.load_p2ulv3005_1 conn=wye bus1=p2ulv3005.1 kV=0.12 Vminpu=0.8 Vmaxpu=1.2 model=1 kW=9.826946408786538 kvar=2.029026931532814 Phases=1 !yearly=res_kw_18028_pu

New Load.load_p2ulv3005_2 conn=wye bus1=p2ulv3005.2 kV=0.12 Vminpu=0.8 Vmaxpu=1.2 model=1 kW=9.826946408786538 kvar=2.029026931532814 Phases=1 !yearly=res_kw_18028_pu

New Load.load_p2ulv3006_1 conn=wye bus1=p2ulv3006.1 kV=0.12 Vminpu=0.8 Vmaxpu=1.2 model=1 kW=5.784891169016695 kvar=1.2623117786172429 Phases=1 !yearly=res_kw_17473_pu

New Load.load_p2ulv3006_2 conn=wye bus1=p2ulv3006.2 kV=0.12 Vminpu=0.8 Vmaxpu=1.2 model=1 kW=5.784891169016695 kvar=1.2623117786172429 Phases=1 !yearly=res_kw_17473_pu

New Load.load_p2ulv3007_1 conn=wye bus1=p2ulv3007.1 kV=0.12 Vminpu=0.8 Vmaxpu=1.2 model=1 kW=6.410436161587603 kvar=1.41009703948587 Phases=1 !yearly=res_kw_20796_pu

New Load.load_p2ulv3007_2 conn=wye bus1=p2ulv3007.2 kV=0.12 Vminpu=0.8 Vmaxpu=1.2 model=1 kW=6.410436161587603 kvar=1.41009703948587 Phases=1 !yearly=res_kw_20796_pu

New Load.load_p2ulv3008_1 conn=wye bus1=p2ulv3008.1 kV=0.12 Vminpu=0.8 Vmaxpu=1.2 model=1 kW=3.856071373980633 kvar=0.9092701650992971 Phases=1 !yearly=com_kw_41845_pu

New Load.load_p2ulv3008_2 conn=wye bus1=p2ulv3008.2 kV=0.12 Vminpu=0.8 Vmaxpu=1.2 model=1 kW=3.856071373980633 kvar=0.9092701650992971 Phases=1 !yearly=com_kw_41845_pu

New Load.load_p2ulv3239_1 conn=wye bus1=p2ulv3239.1 kV=0.12 Vminpu=0.8 Vmaxpu=1.2 model=1 kW=10.889970330483676 kvar=0.7205168760891664 Phases=1 !yearly=res_kw_21110_pu

New Load.load_p2ulv3239_2 conn=wye bus1=p2ulv3239.2 kV=0.12 Vminpu=0.8 Vmaxpu=1.2 model=1 kW=10.889970330483676 kvar=0.7205168760891664 Phases=1 !yearly=res_kw_21110_pu

New Load.load_p2ulv3240_1 conn=wye bus1=p2ulv3240.1 kV=0.12 Vminpu=0.8 Vmaxpu=1.2 model=1 kW=3.024840262818703 kvar=0.7949923665097309 Phases=1 !yearly=res_kw_23683_pu

New Load.load_p2ulv3240_2 conn=wye bus1=p2ulv3240.2 kV=0.12 Vminpu=0.8 Vmaxpu=1.2 model=1 kW=3.024840262818703 kvar=0.7949923665097309 Phases=1 !yearly=res_kw_23683_pu

New Load.load_p2ulv3241_1 conn=wye bus1=p2ulv3241.1 kV=0.12 Vminpu=0.8 Vmaxpu=1.2 model=1 kW=9.42555907363692 kvar=1.0833894393832761 Phases=1 !yearly=res_kw_23586_pu

New Load.load_p2ulv3241_2 conn=wye bus1=p2ulv3241.2 kV=0.12 Vminpu=0.8 Vmaxpu=1.2 model=1 kW=9.42555907363692 kvar=1.0833894393832761 Phases=1 !yearly=res_kw_23586_pu

New Load.load_p2ulv3242_1 conn=wye bus1=p2ulv3242.1 kV=0.12 Vminpu=0.8 Vmaxpu=1.2 model=1 kW=7.107990558259305 kvar=2.2585246090252302 Phases=1 !yearly=res_kw_18909_pu

New Load.load_p2ulv3242_2 conn=wye bus1=p2ulv3242.2 kV=0.12 Vminpu=0.8 Vmaxpu=1.2 model=1 kW=7.107990558259305 kvar=2.2585246090252302 Phases=1 !yearly=res_kw_18909_pu

New Load.load_p2ulv3243_1 conn=wye bus1=p2ulv2008.1 kV=0.12 Vminpu=0.8 Vmaxpu=1.2 model=1 kW=9.128527692097004 kvar=2.00570024520099 Phases=1 !yearly=res_kw_10436_pu

New Load.load_p2ulv3243_2 conn=wye bus1=p2ulv2008.2 kV=0.12 Vminpu=0.8 Vmaxpu=1.2 model=1 kW=9.128527692097004 kvar=2.00570024520099 Phases=1 !yearly=res_kw_10436_pu

New Load.load_p2ulv3452_1 conn=wye bus1=p2ulv3452.1 kV=0.12 Vminpu=0.8 Vmaxpu=1.2 model=1 kW=2.440428388056695 kvar=0.9171079373607339 Phases=1 !yearly=res_kw_43020_pu

New Load.load_p2ulv3452_2 conn=wye bus1=p2ulv3452.2 kV=0.12 Vminpu=0.8 Vmaxpu=1.2 model=1 kW=2.440428388056695 kvar=0.9171079373607339 Phases=1 !yearly=res_kw_43020_pu

New Load.load_p2ulv3453_1 conn=wye bus1=p2ulv3453.1 kV=0.12 Vminpu=0.8 Vmaxpu=1.2 model=1 kW=2.2393031684675724 kvar=0.42980684994687557 Phases=1 !yearly=com_kw_41858_pu

New Load.load_p2ulv3453_2 conn=wye bus1=p2ulv3453.2 kV=0.12 Vminpu=0.8 Vmaxpu=1.2 model=1 kW=2.2393031684675724 kvar=0.42980684994687557 Phases=1 !yearly=com_kw_41858_pu

New Load.load_p2ulv3454_1 conn=wye bus1=p2ulv3454.1 kV=0.12 Vminpu=0.8 Vmaxpu=1.2 model=1 kW=6.956764432229329 kvar=1.3319395944627628 Phases=1 !yearly=res_kw_21365_pu

New Load.load_p2ulv3454_2 conn=wye bus1=p2ulv3454.2 kV=0.12 Vminpu=0.8 Vmaxpu=1.2 model=1 kW=6.956764432229329 kvar=1.3319395944627628 Phases=1 !yearly=res_kw_21365_pu

New Load.load_p2ulv3708_1 conn=wye bus1=p2ulv3708.1 kV=0.12 Vminpu=0.8 Vmaxpu=1.2 model=1 kW=7.812492349969866 kvar=1.9793564401813402 Phases=1 !yearly=res_kw_22536_pu

New Load.load_p2ulv3708_2 conn=wye bus1=p2ulv3708.2 kV=0.12 Vminpu=0.8 Vmaxpu=1.2 model=1 kW=7.812492349969866 kvar=1.9793564401813402 Phases=1 !yearly=res_kw_22536_pu

New Load.load_p2ulv3709_1 conn=wye bus1=p2ulv3709.1 kV=0.12 Vminpu=0.8 Vmaxpu=1.2 model=1 kW=6.899975949142275 kvar=1.6519372839728867 Phases=1 !yearly=res_kw_32758_pu

New Load.load_p2ulv3709_2 conn=wye bus1=p2ulv3709.2 kV=0.12 Vminpu=0.8 Vmaxpu=1.2 model=1 kW=6.899975949142275 kvar=1.6519372839728867 Phases=1 !yearly=res_kw_32758_pu

New Load.load_p2ulv3716_1 conn=wye bus1=p2ulv3716.1 kV=0.12 Vminpu=0.8 Vmaxpu=1.2 model=1 kW=7.289620363406918 kvar=1.6193399800774824 Phases=1 !yearly=res_kw_37814_pu

New Load.load_p2ulv3716_2 conn=wye bus1=p2ulv3716.2 kV=0.12 Vminpu=0.8 Vmaxpu=1.2 model=1 kW=7.289620363406918 kvar=1.6193399800774824 Phases=1 !yearly=res_kw_37814_pu

New Load.load_p2ulv3956_1 conn=wye bus1=p2ulv3956.1 kV=0.12 Vminpu=0.8 Vmaxpu=1.2 model=1 kW=5.660154711121017 kvar=1.3160509049748637 Phases=1 !yearly=res_kw_28932_pu

New Load.load_p2ulv3956_2 conn=wye bus1=p2ulv3956.2 kV=0.12 Vminpu=0.8 Vmaxpu=1.2 model=1 kW=5.660154711121017 kvar=1.3160509049748637 Phases=1 !yearly=res_kw_28932_pu

New Load.load_p2ulv4186_1 conn=wye bus1=p2ulv4186.1 kV=0.12 Vminpu=0.8 Vmaxpu=1.2 model=1 kW=5.853507376259835 kvar=1.5923721455058701 Phases=1 !yearly=res_kw_23184_pu

New Load.load_p2ulv4186_2 conn=wye bus1=p2ulv4186.2 kV=0.12 Vminpu=0.8 Vmaxpu=1.2 model=1 kW=5.853507376259835 kvar=1.5923721455058701 Phases=1 !yearly=res_kw_23184_pu

New Load.load_p2ulv4187_1 conn=wye bus1=p2ulv4187.1 kV=0.12 Vminpu=0.8 Vmaxpu=1.2 model=1 kW=3.341318207737171 kvar=0.6081326486890618 Phases=1 !yearly=res_kw_5319_pu

New Load.load_p2ulv4187_2 conn=wye bus1=p2ulv4187.2 kV=0.12 Vminpu=0.8 Vmaxpu=1.2 model=1 kW=3.341318207737171 kvar=0.6081326486890618 Phases=1 !yearly=res_kw_5319_pu

New Load.load_p2ulv4193_1 conn=wye bus1=p2ulv4193.1 kV=0.12 Vminpu=0.8 Vmaxpu=1.2 model=1 kW=4.3773335638748705 kvar=0.18552891728135248 Phases=1 !yearly=com_kw_42750_pu

New Load.load_p2ulv4193_2 conn=wye bus1=p2ulv4193.2 kV=0.12 Vminpu=0.8 Vmaxpu=1.2 model=1 kW=4.3773335638748705 kvar=0.18552891728135248 Phases=1 !yearly=com_kw_42750_pu

New Load.load_p2ulv4194_1 conn=wye bus1=p2ulv4194.1 kV=0.12 Vminpu=0.8 Vmaxpu=1.2 model=1 kW=9.318864222621206 kvar=2.0935511698108615 Phases=1 !yearly=res_kw_29237_pu

New Load.load_p2ulv4194_2 conn=wye bus1=p2ulv4194.2 kV=0.12 Vminpu=0.8 Vmaxpu=1.2 model=1 kW=9.318864222621206 kvar=2.0935511698108615 Phases=1 !yearly=res_kw_29237_pu

New Load.load_p2ulv4195_1 conn=wye bus1=p2ulv4195.1 kV=0.12 Vminpu=0.8 Vmaxpu=1.2 model=1 kW=6.120796174625792 kvar=0.5789402149923348 Phases=1 !yearly=res_kw_37647_pu

New Load.load_p2ulv4195_2 conn=wye bus1=p2ulv4195.2 kV=0.12 Vminpu=0.8 Vmaxpu=1.2 model=1 kW=6.120796174625792 kvar=0.5789402149923348 Phases=1 !yearly=res_kw_37647_pu

New Load.load_p2ulv4196_1 conn=wye bus1=p2ulv4196.1 kV=0.12 Vminpu=0.8 Vmaxpu=1.2 model=1 kW=3.9097971026572957 kvar=0.9949819034459472 Phases=1 !yearly=com_kw_41799_pu

New Load.load_p2ulv4196_2 conn=wye bus1=p2ulv4196.2 kV=0.12 Vminpu=0.8 Vmaxpu=1.2 model=1 kW=3.9097971026572957 kvar=0.9949819034459472 Phases=1 !yearly=com_kw_41799_pu

New Load.load_p2ulv4444_1 conn=wye bus1=p2ulv4444.1 kV=0.12 Vminpu=0.8 Vmaxpu=1.2 model=1 kW=10.692897130008177 kvar=1.9817024103538634 Phases=1 !yearly=res_kw_29197_pu

New Load.load_p2ulv4444_2 conn=wye bus1=p2ulv4444.2 kV=0.12 Vminpu=0.8 Vmaxpu=1.2 model=1 kW=10.692897130008177 kvar=1.9817024103538634 Phases=1 !yearly=res_kw_29197_pu

New Load.load_p2ulv4445_1 conn=wye bus1=p2ulv4445.1 kV=0.12 Vminpu=0.8 Vmaxpu=1.2 model=1 kW=3.0774317144914005 kvar=1.1570654930070994 Phases=1 !yearly=res_kw_36295_pu

New Load.load_p2ulv4445_2 conn=wye bus1=p2ulv4445.2 kV=0.12 Vminpu=0.8 Vmaxpu=1.2 model=1 kW=3.0774317144914005 kvar=1.1570654930070994 Phases=1 !yearly=res_kw_36295_pu

New Load.load_p2ulv4446_1 conn=wye bus1=p2ulv4446.1 kV=0.12 Vminpu=0.8 Vmaxpu=1.2 model=1 kW=7.094340945248188 kvar=0.6679190777748709 Phases=1 !yearly=res_kw_35570_pu

New Load.load_p2ulv4446_2 conn=wye bus1=p2ulv4446.2 kV=0.12 Vminpu=0.8 Vmaxpu=1.2 model=1 kW=7.094340945248188 kvar=0.6679190777748709 Phases=1 !yearly=res_kw_35570_pu

New Load.load_p2ulv4447_1 conn=wye bus1=p2ulv4447.1 kV=0.12 Vminpu=0.8 Vmaxpu=1.2 model=1 kW=7.92548374559649 kvar=0.6475730343207013 Phases=1 !yearly=res_kw_32009_pu

New Load.load_p2ulv4447_2 conn=wye bus1=p2ulv4447.2 kV=0.12 Vminpu=0.8 Vmaxpu=1.2 model=1 kW=7.92548374559649 kvar=0.6475730343207013 Phases=1 !yearly=res_kw_32009_pu

New Load.load_p2ulv4448_1 conn=wye bus1=p2ulv4448.1 kV=0.12 Vminpu=0.8 Vmaxpu=1.2 model=1 kW=2.144987656544245 kvar=0.11033964773398292 Phases=1 !yearly=com_kw_42531_pu

New Load.load_p2ulv4448_2 conn=wye bus1=p2ulv4448.2 kV=0.12 Vminpu=0.8 Vmaxpu=1.2 model=1 kW=2.144987656544245 kvar=0.11033964773398292 Phases=1 !yearly=com_kw_42531_pu

New Load.load_p2ulv4690_1 conn=wye bus1=p2ulv4690.1 kV=0.12 Vminpu=0.8 Vmaxpu=1.2 model=1 kW=8.157191933173513 kvar=2.2578725563472397 Phases=1 !yearly=res_kw_38812_pu
